6
Coordinates from ORCA-job /home/wontleave/calc/autoopt/methylBr_F/run.optTS.r2scan-3c
  C   -1.84057073703588     -0.57977403919070     -0.04178366813742
  Br  0.19505059081259     -0.16304721022533      0.08317297222484
  H   -1.95764984278215     -1.45057307326118      0.59730348865785
  H   -1.98328539184626     -0.81972817352052     -1.09178418291457
  H   -2.49346813900402      0.24956731399452      0.27786313744283
  F   -4.23867648014420      0.12842518220318      0.25913825272643
