6
Coordinates from ORCA-job /home/wontleave/calc/autoopt/methylBr_F/run.copt.r2scan-3c
  C   -1.84057064087066     -0.57977319551551     -0.04178350680543
  Br  0.19505132137257     -0.16304901539230      0.08317251103980
  H   -1.95765104109447     -1.45057177694137      0.59730394418271
  H   -1.98328619264958     -0.81972709496925     -1.09178390862332
  H   -2.49346612804278      0.24956915038717      0.27786345656706
  F   -4.23867731871499      0.12842193243123      0.25913750363914
