6
Coordinates from ORCA-job /home/wontleave/calc/autoopt/methylBr_F/run.optTS.r2scan-3c
  C   -1.84057060428236     -0.57977322676386     -0.04178353341763
  Br  0.19505099934498     -0.16304899144637      0.08317254420957
  H   -1.95765093686226     -1.45057180223683      0.59730393316467
  H   -1.98328606755099     -0.81972714199723     -1.09178394741408
  H   -2.49346617016991      0.24956910006978      0.27786342246798
  F   -4.23867722047938      0.12842206237447      0.25913758098944
